FoamFile
{
    version     2.0;
    format      ascii;
    class       dictionary;
    object      thermophysicalProperties;
}

thermoType
{
    type            heRhoThermo;
    mixture         pureMixture;
    transport       const;
    thermo          eConst;
    equationOfState perfectGas;
    specie          specie;
    energy          sensibleInternalEnergy;
}

mixture
{
    specie
    {
        molWeight       28.9;
    }
    thermodynamics
    {
        Cv              718;
        Hf              0;
    }
    transport
    {
        mu              1.81e-05;
        Pr              0.7;
    }
}