FoamFile
{
    version     2.0;
    format      ascii;
    class       dictionary;
    object      thermophysicalProperties;
}

thermoType
{
    type            heRhoThermo;
    mixture         pureMixture;
    transport       const;
    thermo          hConst;
    equationOfState Boussinesq;
    specie          specie;
    energy          sensibleEnthalpy;
}

mixture
{
    specie
    {
        molWeight       28.9;
    }
    thermodynamics
    {
        Cp              1005;
        Hf              0;
        Tref            293.15;
    }
    equationOfState
    {
        rho0            1.225;
        T0              293.15;
        beta            3.3e-3;
    }
    transport
    {
        mu              1.81e-05;
        Pr              0.7;
    }
}