FoamFile
{
    version     2.0;
    format      ascii;
    class       dictionary;
    location    "system";
    object      blockMeshDict;
}

convertToMeters 1;

vertices
(
    ($XMIN $YMIN $ZMIN)
    ($XMAX $YMIN $ZMIN)
    ($XMAX $YMAX $ZMIN)
    ($XMIN $YMAX $ZMIN)
    ($XMIN $YMIN $ZMAX)
    ($XMAX $YMIN $ZMAX)
    ($XMAX $YMAX $ZMAX)
    ($XMIN $YMAX $ZMAX)
);

blocks
(
    hex (0 1 2 3 4 5 6 7) (60 60 60) simpleGrading (1 1 1)
);

edges
(
);

boundary
(
    limits
    {
        type patch;
        faces
        (
            (0 3 7 4)
            (0 1 2 3)
            (4 7 6 5)
            (0 4 5 1)
            (3 2 6 7)
        );
    }
    defaultFaces
    {
        type wall;
        faces
        (
            (1 5 6 2)
        );
    }
);

mergePatchPairs
(
);