FoamFile
{
    version     2.0;
    format      ascii;
    class       dictionary;
    object      surfaceFeatureExtractDict;
}

{{STL_FILENAME}}
{
    extractionMethod    extractFromSurface;
    
    extractFromSurfaceCoeffs
    {
        includedAngle   150;
    }
    
    writeObj            yes;
}
