/*--------------------------------*- C++ -*----------------------------------*\
| =========                 |                                                 |
| \\      /  F ield         | cfMesh: A library for mesh generation          | 
|  \\    /   O peration     |                                                 |
|   \\  /    A nd           | Author: Franjo Juretic                          | 
|    \\/     M anipulation  | E-mail: franjo.juretic@c-fields.com            |
\*---------------------------------------------------------------------------*/
FoamFile
{
    version   2.0;
    format    ascii;
    class     dictionary;
    location  "system";
    object    meshDict;
}
// * * * * * * * * * * * * * * * * * * * * * * * * * * * * * * * * * * * * * //

surfaceFile "constant/triSurface/$FMS_FILENAME";

// Tamaños base - malla ligera
maxCellSize $MAX_CELL_SIZE;

minCellSize $MIN_CELL_SIZE;


boundaryCellSize $BOUNDARY_CELL_SIZE;


$LOCAL_REFINEMENT


/*
$BOUNDARY_LAYERS
*/


// Para flujo interno
//keepCellsIntersectingBoundary 1;
//checkForGluedMesh 1;




renameBoundary
{
    defaultName walls;
    defaultType wall;
}

/*
meshQualitySettings
{
    maxNonOrthogonality 65;
    maxBoundarySkewness 20;
    maxInternalSkewness 4;
    minCellVolume 1e-13;
    minFaceArea 1e-13;
}
*/
// * * * * * * * * * * * * * * * * * * * * * * * * * * * * * * * * * * * * * //
